CM RHCP 2m Yagi used by Zeke, KJ7NLL to contast Astronaut Sunita Williams on 10/18/2024
CM This antenna was created by hand by Zeke's classmates and worked perfectly during the contact.
CM Watch https://www.youtube.com/watch?v=hY2EXU0wWjY and his other ISS videos for more info
CE 
GW 1000	20	0.50675	0	0	-0.50675	0	0	0.003175
GW 1001	10	0.47225	0	0.233	0.005	0	0.233	0.003175
GW 1001	10	-0.47225	0	0.233	-0.005	0	0.233	0.003175
GW 1002	20	0.461	0	0.544	-0.461	0	0.544	0.003175
GW 1003	20	0.4565	0	1.1115	-0.4565	0	1.1115	0.003175
GW 1004	20	0.44675	0	1.682	-0.44675	0	1.682	0.003175
GW 1005	20	0	0.50675	0.1155	0	-0.50675	0.1155	0.003175
GW 1006	10	0	0.47225	0.3485	0	0.005	0.3485	0.003175
GW 1006	10	0	-0.47225	0.3485	0	-0.005	0.3485	0.003175
GW 1007	20	0	0.461	0.6595	0	-0.461	0.6595	0.003175
GW 1008	20	0	0.4565	1.227	0	-0.4565	1.227	0.003175
GW 1009	20	0	0.44675	1.7975	0	-0.44675	1.7975	0.003175
GW 1010	5	0.005	0	0.233	0	0.005	0.3485	0.001026
GW 1011	5	-0.005	0	0.233	0	-0.005	0.3485	0.001026
GW 1012	1	0.005	0	0.233	-0.005	0	0.233	0.001026
GE 0	0	0	0	0	0	0	0	0
LD 5	1000	0	0	37700000	0	0	0	0	0
LD 5	1001	0	0	37700000	0	0	0	0	0
LD 5	1002	0	0	37700000	0	0	0	0	0
LD 5	1003	0	0	37700000	0	0	0	0	0
LD 5	1004	0	0	37700000	0	0	0	0	0
LD 5	1005	0	0	37700000	0	0	0	0	0
LD 5	1006	0	0	37700000	0	0	0	0	0
LD 5	1007	0	0	37700000	0	0	0	0	0
LD 5	1008	0	0	37700000	0	0	0	0	0
LD 5	1009	0	0	37700000	0	0	0	0	0
LD 5	1010	0	0	59600000	0	0	0	0	0
LD 5	1011	0	0	59600000	0	0	0	0	0
EX 0	1012	1	0	1	0	0	0	0	0
RP 0	19	37	1000	0	0	10	10	0	0
EK 0	0	0	0	0	0	0	0	0	0
NH 0	0	0	0	0	0	0	0	0	0
NE 0	0	0	0	0	0	0	0	0	0
ZO 50	0	0	0	0	0	0	0	0	0
FR 0	20	0	0	144	0.210526315789474	0	0	0	0
EN 0	0	0	0	0	0	0	0	0	0
