CM RHCP 70cm Yagi used by Zeke, KJ7NLL to test the ISS repeater downlink prior to ARISS
CM For the actual antenna used for ARISS, see examples/2m-5el-rhcp-ARISS-KJ7NLL.nec
CM Watch https://www.youtube.com/watch?v=hY2EXU0wWjY and his other ISS videos for more info
CE 
GW 1000	20	0.5095	0	0	-0.5095	0	0	0.003175
GW 1001	10	0.4835	0	0.1715	0.005	0	0.1715	0.003175
GW 1001	10	-0.4835	0	0.1715	-0.005	0	0.1715	0.003175
GW 1002	20	0.483	0	0.373	-0.483	0	0.373	0.003175
GW 1003	20	0.482	0	0.5735	-0.482	0	0.5735	0.003175
GW 1004	20	0.4795	0	0.8145	-0.4795	0	0.8145	0.003175
GW 1005	20	0	0.5095	0.0485	0	-0.5095	0.0485	0.003175
GW 1006	10	0	0.4835	0.22	0	0.005	0.22	0.003175
GW 1006	10	0	-0.4835	0.22	0	-0.005	0.22	0.003175
GW 1007	20	0	0.483	0.4215	0	-0.483	0.4215	0.003175
GW 1008	20	0	0.482	0.622	0	-0.482	0.622	0.003175
GW 1009	20	0	0.4795	0.863	0	-0.4795	0.863	0.003175
GW 1010	5	0.005	0	0.1715	0	0.005	0.22	0.001026
GW 1011	5	-0.005	0	0.1715	0	-0.005	0.22	0.001026
GW 1012	1	0.005	0	0.1715	-0.005	0	0.1715	0.001026
GE 0	0	0	0	0	0	0	0	0
LD 5	1000	0	0	37700000	0	0	0	0	0
LD 5	1001	0	0	37700000	0	0	0	0	0
LD 5	1002	0	0	37700000	0	0	0	0	0
LD 5	1003	0	0	37700000	0	0	0	0	0
LD 5	1004	0	0	37700000	0	0	0	0	0
LD 5	1005	0	0	37700000	0	0	0	0	0
LD 5	1006	0	0	37700000	0	0	0	0	0
LD 5	1007	0	0	37700000	0	0	0	0	0
LD 5	1008	0	0	37700000	0	0	0	0	0
LD 5	1009	0	0	37700000	0	0	0	0	0
LD 5	1010	0	0	59600000	0	0	0	0	0
LD 5	1011	0	0	59600000	0	0	0	0	0
EX 0	1012	1	0	1	0	0	0	0	0
RP 0	19	37	1000	0	0	10	10	0	0
EK 0	0	0	0	0	0	0	0	0	0
NH 0	0	0	0	0	0	0	0	0	0
NE 0	0	0	0	0	0	0	0	0	0
Z0 50	0	0	0	0	0	0	0	0	0
FR 0	31	0	0	432	0.333333333333333	0	0	0	0
EN 0	0	0	0	0	0	0	0	0	0
